OpenDSS/EPRIK1_Losses.Txt

LOSSES REPORT

Power Delivery Element Loss Report

Element                  kW Losses    % of Power   kvar Losses

"Line.EXT"                      7.32025,     0.12     70.9622
"Transformer.T2"               18.01014,     0.29     284.71
"Line.OH_10559391"              0.00012,      0.0     0.000125291
"Line.OH_10558483"              0.00015,      0.0     0.000156335
"Line.OH_10549227"              0.06131,     0.00     0.309768
"Line.OH_10548919"              2.03902,     0.04     5.63141
"Line.OH_34092313"              0.00068,      0.0     0.00027411
"Line.OH_34085491"              0.00420,     0.00     0.0185751
"Line.UG_34054972"              0.00049,      0.0     8.69091E-005
"Line.OH_10579832"              0.00000,      0.0     2.76828E-006
"Line.OH_10559275"              0.01633,     0.01     0.0165524
"Line.OH_10558475"              0.00000,      0.0     -1.27055E-024
"Line.OH_10549221"              0.06145,     0.00     0.31018
"Line.OH_10548913"              3.49099,     0.06     9.61748
"Line.OH_34091314"              0.00004,      0.0     3.723E-005
"Line.OH_34085468"              0.02821,     0.06     0.0113911
"Line.UG_34054966"              0.00000,      0.0     0
"Line.OH_10558958"              0.01773,     0.01     0.00695682
"Line.OH_10557182"              0.72289,     0.01     3.65346
"Line.OH_10549020"              0.00205,     0.01     0.000802407
"Line.OH_10548907"              0.02567,     0.01     0.0219986
"Line.OH_34090005"              0.00326,     0.00     0.00427497
"Line.OH_34085372"              0.00023,      0.0     0.000228184
"Line.UG_34054542"              0.00000,      0.0     0
"Line.OH_10579447"              0.02386,     0.00     0.00923155
"Line.OH_10558583"              0.00000,      0.0     0
"Line.OH_10555985"              0.00075,      0.0     0.000293561
"Line.OH_10549010"              0.00000,      0.0     1.28741E-005
"Line.OH_10548007"              0.05393,     0.01     0.0877628
"Line.OH_34087255"              0.08472,     0.01     0.0330429
"Line.OH_34085341"              0.00279,     0.00     0.00466145
"Line.OH_20437313"              0.01121,     0.02     0.00452825
"Line.OH_10579118"              0.04924,     0.04     0.0198861
"Line.OH_10558577"              0.00863,     0.01     0.00348615
"Line.OH_10549426"              0.00003,      0.0     3.09921E-005
"Line.OH_10548988"              0.00216,     0.00     0.00218787
"Line.OH_10543795"              0.14113,     0.01     0.225687
"Line.OH_34086801"              0.00014,      0.0     0.000145574
"Line.OH_34085286"              0.00695,     0.00     0.0349637
"Line.OH_20396847"              0.00000,      0.0     4.34973E-006
"Line.OH_10574854"              0.00002,      0.0     1.69816E-005
"Line.OH_10558570"              0.00000,      0.0     -6.61744E-027
"Line.OH_10549307"              0.00125,     0.00     0.000505092
"Line.OH_10548982"              0.00062,      0.0     0.000627007
"Line.OH_10540779"              0.02254,     0.00     0.0360397
"Line.OH_40152453"              0.00000,      0.0     6.32163E-007
"Line.OH_34086794"              0.00022,      0.0     0.000218764
"Line.OH_34085048"              0.00007,      0.0     7.03427E-005
"Line.OH_20350796"              0.00041,      0.0     0.000417209
"Line.OH_10573492"              0.00040,      0.0     0.000407402
"Line.OH_10558564"              0.00001,      0.0     9.87649E-006
"Line.OH_10549291"              0.00002,      0.0     2.35433E-005
"Line.OH_10548968"              0.00004,      0.0     4.34678E-005
"Line.OH_10532911"              0.00049,      0.0     0.000500171
"Line.OH_34097398"              0.02440,     0.02     0.00957303
"Line.OH_34086403"              0.01216,     0.00     0.0542637
"Line.OH_34085042"              0.02116,     0.02     0.00854529
"Line.UG_20344333"              0.00430,     0.01     0.000758836
"Line.OH_10560618"              0.00011,      0.0     0.000115622
"Line.OH_10558558"              0.00002,      0.0     1.92676E-005
"Line.OH_10549285"              0.00011,      0.0     0.000115948
"Line.OH_10548960"              0.00000,      0.0     3.29587E-006
"Line.OH_10526890"              0.00045,      0.0     0.000438558
"Line.OH_34097392"              0.00040,      0.0     0.000162438
"Line.OH_34086382"              0.00037,      0.0     0.00037803
"Line.OH_34085036"              0.02352,     0.01     0.0450396
"Line.OH_20251419"              0.00007,      0.0     6.77052E-005
"Line.OH_10560337"              0.00002,      0.0     1.53957E-005
"Line.OH_10558551"              0.00031,      0.0     0.000316026
"Line.OH_10549274"              0.02482,     0.01     0.0450181
"Line.OH_10548952"              0.00002,      0.0     2.25878E-005
"Line.OH_10524061"              0.00049,      0.0     0.00049963
"Line.OH_34096115"              0.04655,     0.01     0.222027
"Line.OH_34086318"              0.07432,     0.00     0.0288765
"Line.OH_34084954"              0.00051,      0.0     0.000521173
"Line.OH_20079698"              0.00111,     0.00     0.00108041
"Line.OH_10559617"              0.00662,     0.01     0.00267552
"Line.OH_10558545"              0.00001,      0.0     6.64863E-006
"Line.OH_10549263"              0.00001,      0.0     1.11502E-005
"Line.OH_10548946"              0.00004,      0.0     5.12745E-005
"Line.OH_34095665"              0.00098,     0.00     0.000393825
"Line.OH_34086306"              0.08368,     0.03     0.0328281
"Line.OH_34084664"              0.00462,     0.01     0.00186491
"Line.OH_20014991"              0.01014,     0.00     0.00994592
"Line.OH_10559587"              0.00532,     0.01     0.00539141
"Line.OH_10558525"              0.00046,      0.0     0.000443576
"Line.OH_10549255"              0.04538,     0.05     0.0183276
"Line.OH_10548940"              0.00170,     0.01     0.00171967
"Line.OH_34095659"              0.00472,     0.00     0.0216257
"Line.OH_34086300"              0.00000,      0.0     4.27315E-006
"Line.OH_34084601"              0.00420,     0.00     0.00542765
"Line.OH_10580378"              0.00001,      0.0     1.50155E-005
"Line.OH_10559515"              0.00840,     0.01     0.00329332
"Line.OH_10558518"              0.01596,     0.00     0.0711959
"Line.OH_10549248"              0.00002,      0.0     2.14528E-005
"Line.OH_10548933"              0.00163,     0.00     0.00159952
"Line.OH_34095649"              0.00002,      0.0     2.28154E-005
"Line.OH_34086016"              0.00502,     0.01     0.00202652
"Line.UG_34057797"              0.00146,     0.00     0.000258444
"Line.UG_10579978"              0.00007,      0.0     1.29856E-005
"Line.OH_10559400"              0.00003,      0.0     3.33126E-005
"Line.OH_10558511"              0.05464,     0.01     0.262265
"Line.OH_10549241"              0.00004,      0.0     4.37767E-005
"Line.OH_10548927"              0.00069,      0.0     0.00120002
"Line.OH_34095590"              0.01530,     0.01     0.0131242
"Line.OH_34086007"              0.00817,     0.01     0.00320459
"Line.UG_34054979"              0.00106,     0.00     0.000187489
"Line.OH_10579844"              0.00002,      0.0     1.61272E-005
"Line.OH_10559392"              0.08520,     0.04     0.0334232
"Line.OH_10558484"              0.00001,      0.0     1.50217E-005
"Line.OH_10549228"              0.22893,     0.01     1.15634
"Line.OH_10548920"              2.98373,     0.06     8.24251
"Line.OH_34095281"              0.00104,     0.00     0.00105144
"Line.OH_34085492"              0.06497,     0.01     0.10592
"Line.UG_34054973"              0.00285,     0.01     0.000503558
"Line.OH_10579833"              0.00002,      0.0     2.12922E-005
"Line.OH_10559385"              0.00008,      0.0     7.85689E-005
"Line.OH_10558476"              0.00000,      0.0     -3.17637E-025
"Line.OH_10549222"              0.04303,     0.00     0.217275
"Line.OH_10548914"              1.89543,     0.03     5.2222
"Line.OH_34091315"              0.00001,      0.0     6.62609E-006
"Line.OH_34085479"              0.17338,     0.01     0.272983
"Line.UG_34054967"              0.00000,      0.0     0
"Line.OH_10559040"              0.17703,     0.06     0.0694471
"Line.OH_10557802"              1.38113,     0.02     6.97985
"Line.OH_10548908"              0.00047,      0.0     0.000409469
"Line.OH_34090007"              0.00047,      0.0     0.000460715
"Line.OH_34085401"              0.00073,      0.0     0.0014231
"Line.UG_34054927"              0.00133,     0.00     0.000235358
"Line.OH_10579827"              0.00001,      0.0     1.16059E-005
"Line.OH_10558584"              0.00000,      0.0     0
"Line.OH_10556735"              0.00068,      0.0     0.000689333
"Line.OH_10549011"              0.00014,      0.0     0.000618134
"Line.OH_10548901"              0.00421,     0.00     0.00547466
"Line.OH_34087256"              0.60690,     0.05     0.234873
"Line.OH_34085342"              0.00014,      0.0     0.000139156
"Line.OH_20437314"              0.00004,      0.0     3.88163E-005
"Line.OH_10579185"              0.00016,      0.0     0.000161369
"Line.OH_10558578"              0.00013,      0.0     0.000129027
"Line.OH_10549431"              0.00001,      0.0     1.01663E-005
"Line.OH_10548989"              0.00077,      0.0     0.000784246
"Line.OH_10544883"              0.11440,     0.01     0.186484
"Line.OH_34086802"              0.00006,      0.0     6.36802E-005
"Line.OH_34085311"              0.00633,     0.00     0.0101416
"Line.OH_20396849"              0.00001,      0.0     5.9913E-006
"Line.OH_10578709"              0.00174,     0.01     0.000700782
"Line.OH_10558571"              0.09551,     0.05     0.037468
"Line.OH_10549309"              0.01330,     0.02     0.00537205
"Line.OH_10548983"              0.00223,     0.00     0.00225813
"Line.OH_10541616"              0.03482,     0.03     0.0140635
"Line.OH_40154810"              0.00433,     0.01     0.00174902
"Line.OH_34086796"              0.60450,     0.06     0.233915
"Line.OH_34085260"              0.00062,      0.0     0.000252034
"Line.OH_20396671"              0.59216,     0.06     0.229137
"Line.OH_10573493"              0.00017,      0.0     0.00017017
"Line.OH_10558565"              0.00009,      0.0     9.03709E-005
"Line.OH_10549292"              0.03250,     0.00     0.053046
"Line.OH_10548976"              0.00000,      0.0     2.58434E-006
"Line.OH_10536946"              0.07470,     0.01     0.028906
"Line.OH_40013213"              0.00000,      0.0     1.05879E-025
"Line.OH_34086404"              0.00073,      0.0     0.000296211
"Line.OH_34085043"              0.00126,     0.01     0.000509198
"Line.UG_20344334"              0.00000,      0.0     0
"Line.OH_10561915"              0.00002,      0.0     2.0236E-005
"Line.OH_10558559"              0.00013,      0.0     0.00012932
"Line.OH_10549286"              0.00012,      0.0     0.000124281
"Line.OH_10548961"              0.00004,      0.0     4.03459E-005
"Line.OH_10528321"              0.00010,      0.0     0.000101299
"Line.OH_34097393"              0.00005,      0.0     2.12889E-005
"Line.OH_34086383"              0.00006,      0.0     5.74791E-005
"Line.OH_34085037"              0.00790,     0.00     0.0151207
"Line.OH_20344324"              0.73386,     0.07     0.283973
"Line.OH_10560338"              0.00031,      0.0     0.000318291
"Line.OH_10558552"              0.00000,      0.0     -1.32349E-026
"Line.OH_10549276"              0.01648,     0.00     0.0306206
"Line.OH_10548953"              0.00021,      0.0     0.000213215
"Line.OH_10524153"              0.00012,      0.0     0.000122251
"Line.OH_34096116"              0.00251,     0.00     0.0120606
"Line.OH_34086319"              0.00007,      0.0     7.31037E-005
"Line.OH_34084955"              0.00297,     0.00     0.00484026
"Line.OH_20079699"              0.00392,     0.00     0.00381113
"Line.OH_10559735"              0.58382,     0.02     2.91975
"Line.OH_10558546"              0.00005,      0.0     5.14688E-005
"Line.OH_10549264"              0.00010,      0.0     0.000103885
"Line.OH_10548947"              0.00002,      0.0     2.17468E-005
"Line.OH_34095666"              0.00106,     0.00     0.000427813
"Line.OH_34086307"              0.13375,     0.06     0.0524711
"Line.OH_34084665"              0.00293,     0.01     0.00118431
"Line.OH_20014992"              0.00002,      0.0     2.4929E-005
"Line.OH_10559588"              0.00029,      0.0     0.000295264
"Line.OH_10558540"              0.00000,      0.0     -1.05879E-025
"Line.OH_10549258"              0.00032,      0.0     0.000328597
"Line.OH_10548941"              0.00007,      0.0     6.87459E-005
"Line.OH_34095660"              0.00020,      0.0     0.000909186
"Line.OH_34086301"              0.07400,     0.05     0.0290308
"Line.OH_34084602"              0.00975,     0.01     0.0116517
"Line.OH_10580818"              1.02350,     0.02     5.17223
"Line.OH_10559537"              0.00490,     0.00     0.00192343
"Line.OH_10558520"              0.03575,     0.01     0.157057
"Line.OH_10549249"              0.00003,      0.0     2.61954E-005
"Line.OH_10548934"              0.00114,     0.00     0.0011185
"Line.OH_34095650"              0.00279,     0.00     0.00112553
"Line.OH_34086017"              0.00023,      0.0     9.28719E-005
"Line.UG_34057798"              0.00247,     0.00     0.000435288
"Line.UG_10580150"              0.22042,     0.05     0.0648284
"Line.OH_10559407"              0.00045,      0.0     0.000453094
"Line.OH_10558513"              0.05213,     0.01     0.248575
"Line.OH_10549243"              0.00097,     0.00     0.000381964
"Line.OH_10548928"              0.00000,      0.0     -5.29396E-026
"Line.OH_34095591"              0.01123,     0.01     0.00975391
"Line.OH_34086008"              0.26686,     0.01     1.33459
"Line.UG_34054980"              0.00251,     0.01     0.000443527
"Line.OH_10579845"              0.00001,      0.0     1.23396E-005
"Line.OH_10559393"              0.04564,     0.03     0.0179061
"Line.UG_10558494"              0.00000,      0.0     -2.11758E-025
"Line.OH_10549229"              0.16070,     0.01     0.810934
"Line.OH_10548921"              1.01607,     0.02     2.80688
"Line.OH_34085493"              0.09036,     0.01     0.14804
"Line.UG_34054974"              0.00230,     0.01     0.000405829
"Line.OH_10579834"              0.00000,      0.0     2.05547E-006
"Line.OH_10559386"              0.00045,      0.0     0.00045601
"Line.OH_10558477"              0.00001,      0.0     1.04524E-005
"Line.OH_10549223"              0.11142,     0.01     0.562072
"Line.OH_10548915"              3.26625,     0.06     9.01894
"Line.OH_34091439"              0.00012,      0.0     4.83602E-005
"Line.OH_34085480"              0.00898,     0.00     0.00778693
"Line.UG_34054968"              0.00000,      0.0     0
"Line.OH_10559057"              0.22691,     0.08     0.0890151
"Line.OH_10558215"              0.00008,      0.0     8.47933E-005
"Line.OH_10549216"              0.00011,      0.0     0.00048077
"Line.OH_10548909"              0.00996,     0.01     0.00857284
"Line.OH_34090031"              0.00051,      0.0     0.000669354
"Line.OH_34085402"              5.12100,     0.10     14.1458
"Line.UG_34054962"              0.00316,     0.01     0.000556882
"Line.OH_10579828"              0.00003,      0.0     2.67183E-005
"Line.OH_10558585"              0.00003,      0.0     3.23431E-005
"Line.OH_10556736"              0.00014,      0.0     0.000138204
"Line.OH_10549013"              0.00009,      0.0     9.58542E-005
"Line.OH_10548902"              0.00285,     0.00     0.00341021
"Line.OH_34090000"              0.00001,      0.0     9.34038E-006
"Line.OH_34085350"              0.00025,      0.0     0.000242187
"Line.OH_20456673"              0.00578,     0.01     0.00233263
"Line.OH_10579196"              0.00000,      0.0     3.14959E-006
"Line.OH_10558579"              0.00003,      0.0     2.72643E-005
"Line.OH_10549433"              0.05284,     0.03     0.0213413
"Line.OH_10548992"              0.00022,      0.0     0.000224082
"Line.OH_10545431"              0.09454,     0.01     0.154646
"Line.OH_34086805"              0.00090,     0.01     0.000364229
"Line.OH_34085312"              0.00130,     0.00     0.00244041
"Line.OH_20409718"              0.00000,      0.0     1.11443E-006
"Line.OH_10579019"              0.03798,     0.01     0.0703167
"Line.OH_10558572"              0.00748,     0.00     0.00293491
"Line.OH_10549310"              0.00017,      0.0     0.000173161
"Line.OH_10548984"              0.00002,      0.0     1.60902E-005
"Line.OH_10542098"              0.00229,     0.00     0.0102978
"Line.OH_40156534"              0.00000,      0.0     1.62028E-007
"Line.OH_34086797"              0.10609,     0.01     0.0412952
"Line.OH_34085261"              0.00009,      0.0     3.46438E-005
"Line.OH_20396672"              0.00018,      0.0     0.000170517
"Line.OH_10573495"              0.00011,      0.0     0.000114709
"Line.OH_10558566"              0.00023,      0.0     0.00023602
"Line.OH_10549293"              0.03691,     0.01     0.0603807
"Line.OH_10548977"              0.00004,      0.0     4.29229E-005
"Line.OH_10539784"              0.00000,      0.0     2.10489E-006
"Line.OH_40013232"              0.00000,      0.0     -2.64698E-026
"Line.OH_34086405"              0.00001,      0.0     1.32113E-005
"Line.OH_34085044"              0.00091,     0.00     0.000368475
"Line.UG_20344367"              0.00000,      0.0     0
"Line.UG_10571603"              0.00023,      0.0     4.07496E-005
"Line.OH_10558560"              0.03343,     0.00     0.159427
"Line.OH_10549287"              0.00006,      0.0     6.00902E-005
"Line.OH_10548962"              0.00041,      0.0     0.000413756
"Line.OH_10529606"              0.00063,      0.0     0.00063529
"Line.OH_34097394"              0.00051,      0.0     0.000199858
"Line.OH_34086384"              0.00025,      0.0     0.000249731
"Line.OH_34085038"              0.00371,     0.00     0.00728459
"Line.OH_20344325"              0.01087,     0.00     0.0119342
"Line.OH_10560401"              0.00020,      0.0     8.03017E-005
"Line.OH_10558553"              0.00019,      0.0     0.00018908
"Line.OH_10549278"              0.02243,     0.01     0.0427488
"Line.OH_10548954"              0.00000,      0.0     2.23993E-006
"Line.OH_10524870"              0.00001,      0.0     6.53115E-006
"Line.OH_34096667"              0.00049,      0.0     0.000497821
"Line.OH_34086320"              0.00001,      0.0     8.73145E-006
"Line.OH_34084956"              0.00013,      0.0     0.000128488
"Line.OH_20114727"              0.00028,      0.0     0.000273465
"Line.OH_10559783"              0.04668,     0.03     0.0188518
"Line.OH_10558547"              0.00017,      0.0     0.000171048
"Line.OH_10549265"              0.00104,     0.00     0.00105017
"Line.OH_10548948"              0.00000,      0.0     7.22032E-010
"Line.OH_10522508"              0.00685,     0.01     0.00276713
"Line.OH_34095667"              0.00640,     0.01     0.00258424
"Line.OH_34086308"              0.04603,     0.03     0.0180588
"Line.OH_34084666"              0.00838,     0.01     0.00338435
"Line.OH_20028683"              1.22168,     0.09     0.477921
"Line.OH_10559589"              0.00022,      0.0     0.000227661
"Line.OH_10558541"              0.00000,      0.0     -2.64698E-026
"Line.OH_10549259"              0.00013,      0.0     0.000134238
"Line.OH_10548942"              0.00001,      0.0     7.72487E-006
"Line.OH_34095661"              0.10424,     0.01     0.167092
"Line.OH_34086302"              0.00163,     0.00     0.000638
"Line.OH_34084616"              0.00681,     0.00     0.0059638
"Line.OH_10559558"              0.04147,     0.03     0.0162696
"Line.OH_10558521"              0.00887,     0.00     0.0389429
"Line.OH_10549250"              0.00007,      0.0     6.60453E-005
"Line.OH_10548935"              0.00000,      0.0     1.69574E-007
"Line.OH_34095651"              2.88469,     0.05     7.94902
"Line.OH_34086018"              0.00003,      0.0     3.19576E-005
"Line.UG_34057799"              0.00000,      0.0     0
"Line.OH_10580155"              0.05742,     0.01     0.0557551
"Line.OH_10559451"              0.00321,     0.00     0.00324987
"Line.OH_10558514"              0.17056,     0.02     0.809476
"Line.OH_10549244"              0.00017,      0.0     6.63593E-005
"Line.OH_10548929"              0.00003,      0.0     4.33535E-005
"Line.OH_34095592"              0.00004,      0.0     6.82719E-005
"Line.OH_34086010"              0.06582,     0.00     0.331217
"Line.UG_34054992"              0.00654,     0.01     0.0011541
"Line.OH_10579847"              0.01493,     0.03     0.00603045
"Line.OH_10559394"              0.00027,      0.0     0.000271909
"Line.OH_10558506"              0.34858,     0.02     0.135234
"Line.OH_10549231"              0.00000,      0.0     2.26578E-010
"Line.OH_10548922"              0.96296,     0.02     2.6603
"Line.OH_34095580"              0.00024,      0.0     0.000244701
"Line.OH_34085951"              0.00074,      0.0     0.000746978
"Line.UG_34054975"              0.00512,     0.01     0.000903545
"Line.OH_10579840"              0.00010,      0.0     9.73633E-005
"Line.OH_10559387"              0.00004,      0.0     3.67449E-005
"Line.OH_10558478"              0.00000,      0.0     2.00987E-006
"Line.OH_10549224"              0.12012,     0.01     0.60439
"Line.OH_10548916"              2.03744,     0.04     5.62661
"Line.OH_34092154"              0.00015,      0.0     0.000151168
"Line.OH_34085488"              0.06622,     0.00     0.334368
"Line.UG_34054969"              0.00000,      0.0     0
"Line.OH_10559090"              0.14254,     0.05     0.0559171
"Line.OH_10558469"              0.28992,     0.02     0.112658
"Line.OH_10549217"              0.00405,     0.00     0.0179839
"Line.OH_10548910"              0.03601,     0.02     0.0310437
"Line.OH_34090083"              0.00096,     0.00     0.000369571
"Line.OH_34085442"              0.05413,     0.01     0.096606
"Line.UG_34054963"              0.00061,      0.0     0.00010766
"Line.OH_10579829"              0.00008,      0.0     7.63319E-005
"Line.OH_10558586"              0.00042,      0.0     0.000426833
"Line.OH_10556737"              0.00002,      0.0     1.67746E-005
"Line.OH_10549015"              0.00004,      0.0     4.55119E-005
"Line.OH_10548903"              0.00172,     0.00     0.0020503
"Line.OH_34090001"              0.00027,      0.0     0.000350806
"Line.OH_34085352"              2.38222,     0.05     6.57875
"Line.OH_20456674"              0.00003,      0.0     3.16025E-005
"Line.OH_10579231"              0.00010,      0.0     0.000105839
"Line.OH_10558580"              0.00022,      0.0     0.000226532
"Line.OH_10552942"              0.00002,      0.0     2.33038E-005
"Line.OH_10548993"              0.00001,      0.0     6.0995E-006
"Line.OH_10545502"              0.07756,     0.01     0.126626
"Line.OH_34086806"              0.00653,     0.02     0.00263562
"Line.OH_34085313"              0.00943,     0.00     0.0179452
"Line.OH_20409719"              0.00000,      0.0     0
"Line.OH_10579028"              0.00000,      0.0     -3.30872E-027
"Line.OH_10558573"              0.13496,     0.07     0.0529447
"Line.OH_10549311"              0.00069,      0.0     0.000700411
"Line.OH_10548985"              0.00013,      0.0     0.000131839
"Line.OH_10542105"              0.00457,     0.00     0.0208
"Line.UG_40156536"              0.00000,      0.0     4.67034E-007
"Line.OH_34086798"              0.01043,     0.01     0.0105737
"Line.OH_34085262"              0.00203,     0.01     0.000818615
"Line.OH_20396674"              0.00015,      0.0     0.000143238
"Line.OH_10573638"              5.36276,     0.09     27.1005
"Line.OH_10558567"              0.00010,      0.0     0.00010326
"Line.OH_10549294"              0.03677,     0.01     0.0600372
"Line.OH_10548979"              0.00229,     0.00     0.00301118
"Line.OH_10540312"              0.09250,     0.02     0.0357922
"Line.OH_40013233"              0.00000,      0.0     -4.23516E-025
"Line.OH_34086410"              0.00161,     0.00     0.00748279
"Line.OH_34085045"              0.00001,      0.0     5.56454E-006
"Line.UG_20344368"              0.00066,      0.0     0.00011618
"Line.OH_10572328"              0.00003,      0.0     3.24313E-005
"Line.OH_10558561"              0.00002,      0.0     1.66369E-005
"Line.OH_10549288"              0.00015,      0.0     5.98587E-005
"Line.OH_10548963"              0.00013,      0.0     0.000128691
"Line.OH_10529607"              0.00023,      0.0     0.000237532
"Line.OH_34097395"              0.00633,     0.02     0.00248427
"Line.OH_34086400"              0.12963,     0.06     0.0508511
"Line.OH_34085039"              0.00001,      0.0     1.50562E-005
"Line.OH_20344327"              0.00352,     0.00     0.00386047
"Line.OH_10560402"              0.00029,      0.0     0.000293972
"Line.OH_10558554"              0.00040,      0.0     0.000408379
"Line.OH_10549282"              0.01141,     0.01     0.0224077
"Line.OH_10548955"              0.00005,      0.0     1.88919E-005
"Line.OH_10524883"              0.00001,      0.0     6.72907E-006
"Line.OH_34096668"              0.00005,      0.0     5.05833E-005
"Line.OH_34086322"              0.00001,      0.0     1.16961E-005
"Line.OH_34084957"              0.05359,     0.01     0.0875515
"Line.UG_20114730"              0.00043,      0.0     0.000126678
"Line.OH_10559784"              0.07559,     0.03     0.0305294
"Line.OH_10558548"              0.00018,      0.0     0.000183917
"Line.OH_10549266"              0.00000,      0.0     1.57004E-006
"Line.OH_10548949"              0.00000,      0.0     3.22164E-010
"Line.OH_10522509"              0.00082,      0.0     0.000828624
"Line.OH_34095668"              0.00485,     0.01     0.00195728
"Line.OH_34086309"              0.09021,     0.05     0.0353903
"Line.OH_34084951"              0.00358,     0.00     0.00577463
"Line.OH_20028684"              0.00010,      0.0     0.000102625
"Line.OH_10559590"              0.00045,      0.0     0.000456524
"Line.OH_10558542"              0.00012,      0.0     0.000120038
"Line.OH_10549260"              0.00001,      0.0     5.21336E-006
"Line.OH_10548943"              0.00000,      0.0     0
"Line.OH_34095662"              0.07441,     0.01     0.120313
"Line.OH_34086303"              0.00088,      0.0     0.000355849
"Line.OH_34084661"              0.07819,     0.05     0.0315776
"Line.OH_10559560"              0.00000,      0.0     3.87403E-006
"Line.OH_10558522"              0.03969,     0.01     0.174367
"Line.OH_10549251"              0.00024,      0.0     0.000245029
"Line.OH_10548937"              0.00008,      0.0     7.85409E-005
"Line.OH_34095654"              0.00697,     0.00     0.00281363
"Line.OH_34086019"              0.00023,      0.0     9.25826E-005
"Line.OH_34084591"              0.00005,      0.0     5.97354E-005
"Line.OH_10580163"              0.00795,     0.00     0.00771632
"Line.OH_10559487"              0.00317,     0.00     0.00321807
"Line.OH_10558515"              0.01366,     0.00     0.0637981
"Line.OH_10549245"              0.00007,      0.0     6.90786E-005
"Line.OH_10548930"              0.00037,      0.0     0.000574986
"Line.OH_34095643"              0.00301,     0.00     0.00279333
"Line.OH_34086011"              0.00685,     0.02     0.00276778
"Line.UG_34055522"              0.00710,     0.01     0.00125302
"Line.OH_10579900"              1.12733,     0.02     5.69691
"Line.OH_10559396"              0.00030,      0.0     0.000299256
"Line.OH_10558507"              2.25044,     0.13     0.873068
"Line.OH_10549232"              0.00000,      0.0     1.40299E-009
"Line.OH_10548923"              0.29575,     0.01     1.47906
"Line.OH_34095581"              0.00130,     0.00     0.00131293
"Line.OH_34085952"              0.04979,     0.04     0.0201102
"Line.UG_34054976"              0.00157,     0.01     0.000277316
"Line.OH_10579841"              0.00014,      0.0     0.000139408
"Line.OH_10559389"              0.00003,      0.0     3.05812E-005
"Line.OH_10558481"              0.00000,      0.0     2.8169E-006
"Line.OH_10549225"              0.10984,     0.01     0.552902
"Line.OH_10548917"              9.54677,     0.18     26.3645
"Line.OH_34092234"              0.00230,     0.01     0.000930827
"Line.OH_34085489"              0.00446,     0.00     0.0225314
"Line.UG_34054970"              0.00000,      0.0     0
"Line.OH_10579830"              0.00001,      0.0     7.53041E-006
"Line.OH_10559182"              0.08283,     0.03     0.0324955
"Line.OH_10558471"              1.37863,     0.09     0.53668
"Line.OH_10549219"              0.00411,     0.00     0.0194972
"Line.OH_10548911"              0.11721,     0.00     0.323016
"Line.OH_34090086"              1.11684,     0.07     0.433409
"Line.OH_34085461"              0.00155,     0.01     0.000606166
"Line.UG_34054964"              0.00033,      0.0     5.74366E-005
"Line.OH_10556738"              0.00001,      0.0     1.13131E-005
"Line.OH_10549016"              0.00001,      0.0     1.06627E-005
"Line.OH_10548905"              0.01063,     0.00     0.0091497
"Line.OH_34090003"              1.38110,     0.02     3.80573
"Line.OH_34085370"              0.50556,     0.01     1.39313
"Line.OH_20494025"              0.00008,      0.0     7.80867E-005
"Line.OH_10579234"              0.00063,      0.0     0.000636332
"Line.OH_10558581"              0.00005,      0.0     5.55397E-005
"Line.OH_10553426"              0.02149,     0.01     0.0961944
"Line.OH_10548994"              0.00003,      0.0     2.94816E-005
"Line.OH_10545682"              0.00429,     0.00     0.00693284
"Line.OH_34086829"              0.72527,     0.06     0.280648
...