OpenDSS/EPRIK1_Power_elem_kVA.txt

CIRCUIT ELEMENT POWER FLOW

(Power Flow into element from indicated Bus)

Power Delivery Elements

  Bus           Phase     kW     +j   kvar         kVA         PF

ELEMENT = "Vsource.SOURCE"
TRANS_EQUIV_INT     1     -2069.5 +j   -673.4     2176.3       0.9509
TRANS_EQUIV_INT     2     -1962.2 +j   -613.2     2055.8       0.9545
TRANS_EQUIV_INT     3     -1973.6 +j   -627.3     2070.9       0.9530
   TERMINAL TOTAL ....... -6005.2 +j  -1913.9     6302.9       0.9528
TRANS_EQUIV_INT     0         0.0 +j      0.0        0.0       1.0000
TRANS_EQUIV_INT     0         0.0 +j      0.0        0.0       1.0000
TRANS_EQUIV_INT     0         0.0 +j      0.0        0.0       1.0000
   TERMINAL TOTAL .......     0.0 +j      0.0        0.0       1.0000

ELEMENT = "Line.EXT"
TRANS_EQUIV_INT     1      2069.5 +j    673.4     2176.3       0.9509
TRANS_EQUIV_INT     2      1962.2 +j    613.2     2055.8       0.9545
TRANS_EQUIV_INT     3      1973.6 +j    627.3     2070.9       0.9530
   TERMINAL TOTAL .......  6005.2 +j   1913.9     6302.9       0.9528
TRANS_EQUIV_EXT     1     -2067.1 +j   -649.7     2166.8       0.9540
TRANS_EQUIV_EXT     2     -1960.3 +j   -592.5     2047.9       0.9572
TRANS_EQUIV_EXT     3     -1971.1 +j   -606.4     2062.3       0.9558
   TERMINAL TOTAL ....... -5998.5 +j  -1848.6     6276.9       0.9556

ELEMENT = "Transformer.T2"
TRANS_EQUIV_EXT     1      2067.1 +j    649.7     2166.8       0.9540
TRANS_EQUIV_EXT     2      1960.3 +j    592.5     2047.9       0.9572
TRANS_EQUIV_EXT     3      1971.1 +j    606.4     2062.3       0.9558
TRANS_EQUIV_EXT     0         0.0 +j      0.0        0.0       1.0000
   TERMINAL TOTAL .......  5998.5 +j   1848.6     6276.9       0.9556
K21                 1     -1676.2 +j   -556.1     1766.1       0.9491
K21                 2     -1568.8 +j   -509.0     1649.3       0.9512
K21                 3     -1579.9 +j   -521.6     1663.8       0.9496
K21                 0         0.0 +j      0.0        0.0       1.0000
   TERMINAL TOTAL ....... -4824.9 +j  -1586.8     5079.2       0.9499

ELEMENT = "Line.OH_10559391"
34097296            1        10.4 +j      2.7       10.7       0.9681
   TERMINAL TOTAL .......    10.4 +j      2.7       10.7       0.9681
10559391            1       -10.4 +j     -2.7       10.7       0.9681
   TERMINAL TOTAL .......   -10.4 +j     -2.7       10.7       0.9681

ELEMENT = "Line.OH_10558483"
10558484            2        10.8 +j      2.8       11.1       0.9681
   TERMINAL TOTAL .......    10.8 +j      2.8       11.1       0.9681
10558483            2       -10.8 +j     -2.8       11.1       0.9681
   TERMINAL TOTAL .......   -10.8 +j     -2.8       11.1       0.9681

ELEMENT = "Line.OH_10549227"
10548932            1       514.1 +j    140.1      532.8       0.9648
10548932            2       492.1 +j    133.6      509.9       0.9650
10548932            3       554.2 +j    149.8      574.1       0.9653
   TERMINAL TOTAL .......  1560.3 +j    423.6     1616.8       0.9651
10549227            1      -514.0 +j   -140.1      532.8       0.9648
10549227            2      -492.0 +j   -133.6      509.9       0.9651
10549227            3      -554.2 +j   -149.8      574.1       0.9654
   TERMINAL TOTAL ....... -1560.3 +j   -423.4     1616.7       0.9651

ELEMENT = "Line.OH_10548919"
10548918            1      1470.6 +j    465.0     1542.4       0.9535
10548918            2      1090.2 +j    360.6     1148.3       0.9494
10548918            3      1446.2 +j    455.6     1516.2       0.9538
   TERMINAL TOTAL .......  4007.0 +j   1281.2     4206.9       0.9525
10548919            1     -1470.3 +j   -463.4     1541.6       0.9537
10548919            2     -1090.0 +j   -360.0     1147.9       0.9496
10548919            3     -1445.4 +j   -454.2     1515.1       0.9540
   TERMINAL TOTAL ....... -4005.7 +j  -1277.6     4204.6       0.9527

ELEMENT = "Line.OH_34092313"
34092234            3        20.3 +j      5.2       20.9       0.9687
   TERMINAL TOTAL .......    20.3 +j      5.2       20.9       0.9687
34092313            3       -20.3 +j     -5.2       20.9       0.9687
   TERMINAL TOTAL .......   -20.3 +j     -5.2       20.9       0.9687

ELEMENT = "Line.OH_34085491"
34095660            1         0.0 +j      0.0        0.0       0.0791
34095660            2       135.1 +j     35.3      139.7       0.9674
34095660            3         0.0 +j      0.0        0.0       0.9001
   TERMINAL TOTAL .......   135.1 +j     35.3      139.7       0.9674
34085491            1        -0.0 +j     -0.0        0.0       0.0790
34085491            2      -135.1 +j    -35.3      139.7       0.9675
34085491            3        -0.0 +j     -0.0        0.0       0.9001
   TERMINAL TOTAL .......  -135.1 +j    -35.3      139.7       0.9675

ELEMENT = "Line.UG_34054972"
34057797            3        24.1 +j      6.1       24.8       0.9694
   TERMINAL TOTAL .......    24.1 +j      6.1       24.8       0.9694
34054972            3       -24.1 +j     -6.1       24.8       0.9694
   TERMINAL TOTAL .......   -24.1 +j     -6.1       24.8       0.9694

ELEMENT = "Line.OH_10579832"
10548007            3         6.1 +j      1.6        6.3       0.9687
   TERMINAL TOTAL .......     6.1 +j      1.6        6.3       0.9687
10579832            3        -6.1 +j     -1.6        6.3       0.9687
   TERMINAL TOTAL .......    -6.1 +j     -1.6        6.3       0.9687

ELEMENT = "Line.OH_10559275"
34086311            1       130.5 +j     33.9      134.8       0.9680
   TERMINAL TOTAL .......   130.5 +j     33.9      134.8       0.9680
10559275            1      -130.5 +j    -33.8      134.8       0.9680
   TERMINAL TOTAL .......  -130.5 +j    -33.8      134.8       0.9680

ELEMENT = "Line.OH_10558475"
10558476            1        -0.0 +j     -0.0        0.0       0.2609
10558476            2         0.0 +j      0.0        0.0       0.8685
10558476            3        -0.0 +j     -0.0        0.0       0.6083
   TERMINAL TOTAL .......    -0.0 +j     -0.0        0.0       0.1005
10558475            1         0.0 +j      0.0        0.0       0.2609
10558475            2        -0.0 +j     -0.0        0.0       0.8685
10558475            3         0.0 +j      0.0        0.0       0.6083
   TERMINAL TOTAL .......     0.0 +j      0.0        0.0       0.1005

ELEMENT = "Line.OH_10549221"
10549222            1       367.8 +j    100.3      381.2       0.9648
10549222            2       401.6 +j    108.7      416.1       0.9653
10549222            3       331.7 +j     90.3      343.8       0.9649
   TERMINAL TOTAL .......  1101.2 +j    299.3     1141.1       0.9650
10549221            1      -367.8 +j   -100.2      381.2       0.9648
10549221            2      -401.6 +j   -108.6      416.0       0.9653
10549221            3      -331.7 +j    -90.2      343.8       0.9649
   TERMINAL TOTAL ....... -1101.1 +j   -299.1     1141.0       0.9650

ELEMENT = "Line.OH_10548913"
10548912            1      1489.8 +j    490.1     1568.4       0.9499
10548912            2      1420.0 +j    456.9     1491.7       0.9519
10548912            3      1474.9 +j    480.3     1551.1       0.9508
   TERMINAL TOTAL .......  4384.7 +j   1427.4     4611.2       0.9509
10548913            1     -1489.1 +j   -488.0     1567.0       0.9503
10548913            2     -1419.4 +j   -455.1     1490.5       0.9522
10548913            3     -1474.1 +j   -478.3     1549.8       0.9512
   TERMINAL TOTAL ....... -4382.5 +j  -1421.4     4607.3       0.9512

ELEMENT = "Line.OH_34091314"
10559587            3        31.6 +j      8.2       32.7       0.9679
   TERMINAL TOTAL .......    31.6 +j      8.2       32.7       0.9679
34091314            3       -31.6 +j     -8.2       32.7       0.9679
   TERMINAL TOTAL .......   -31.6 +j     -8.2       32.7       0.9679

ELEMENT = "Line.OH_34085468"
34085954            3        44.0 +j     11.4       45.4       0.9680
   TERMINAL TOTAL .......    44.0 +j     11.4       45.4       0.9680
34085468            3       -43.9 +j    -11.4       45.4       0.9680
   TERMINAL TOTAL .......   -43.9 +j    -11.4       45.4       0.9680

ELEMENT = "Line.UG_34054966"
20344367            2         0.0 +j      0.0        0.0       1.0000
   TERMINAL TOTAL .......     0.0 +j      0.0        0.0       1.0000
34054966            2         0.0 +j      0.0        0.0       1.0000
   TERMINAL TOTAL .......     0.0 +j      0.0        0.0       1.0000

ELEMENT = "Line.OH_10558958"
10558517            1       316.9 +j     82.6      327.5       0.9676
   TERMINAL TOTAL .......   316.9 +j     82.6      327.5       0.9676
10558958            1      -316.9 +j    -82.6      327.5       0.9676
   TERMINAL TOTAL .......  -316.9 +j    -82.6      327.5       0.9676

ELEMENT = "Line.OH_10557182"
10557802            1      1601.3 +j    525.1     1685.2       0.9502
10557802            2      1522.4 +j    487.2     1598.5       0.9524
10557802            3      1528.4 +j    498.9     1607.8       0.9506
   TERMINAL TOTAL .......  4652.2 +j   1511.1     4891.5       0.9511
10557182            1     -1601.2 +j   -524.2     1684.8       0.9504
10557182            2     -1522.3 +j   -486.4     1598.1       0.9526
10557182            3     -1528.3 +j   -498.2     1607.4       0.9508
   TERMINAL TOTAL ....... -4651.7 +j  -1508.8     4890.3       0.9512

ELEMENT = "Line.OH_10549020"
20079696            3        29.6 +j      7.6       30.6       0.9683
   TERMINAL TOTAL .......    29.6 +j      7.6       30.6       0.9683
10549020            3       -29.6 +j     -7.6       30.6       0.9683
   TERMINAL TOTAL .......   -29.6 +j     -7.6       30.6       0.9683

ELEMENT = "Line.OH_10548907"
34095590            1        47.9 +j     12.2       49.5       0.9689
34095590            2        44.8 +j     11.7       46.3       0.9678
34095590            3        41.3 +j     10.6       42.6       0.9684
   TERMINAL TOTAL .......   134.0 +j     34.5      138.4       0.9684
10548907            1       -47.9 +j    -12.2       49.5       0.9690
10548907            2       -44.8 +j    -11.7       46.3       0.9678
10548907            3       -41.3 +j    -10.6       42.6       0.9684
   TERMINAL TOTAL .......  -134.0 +j    -34.5      138.4       0.9684

ELEMENT = "Line.OH_34090005"
10548965            1        -0.0 +j     -0.0        0.0       0.9766
10548965            2       267.8 +j     70.0      276.8       0.9675
10548965            3         0.0 +j      0.0        0.0       0.8933
   TERMINAL TOTAL .......   267.8 +j     70.0      276.8       0.9675
34090005            1         0.0 +j      0.0        0.0       0.9766
34090005            2      -267.8 +j    -70.0      276.8       0.9675
34090005            3        -0.0 +j     -0.0        0.0       0.8933
   TERMINAL TOTAL .......  -267.8 +j    -70.0      276.8       0.9675

ELEMENT = "Line.OH_34085372"
10548983            1        66.7 +j     17.3       68.9       0.9681
   TERMINAL TOTAL .......    66.7 +j     17.3       68.9       0.9681
34085372            1       -66.7 +j    -17.3       68.9       0.9681
   TERMINAL TOTAL .......   -66.7 +j    -17.3       68.9       0.9681

ELEMENT = "Line.UG_34054542"
20416460            1         0.0 +j      0.0        0.0       1.0000
   TERMINAL TOTAL .......     0.0 +j      0.0        0.0       1.0000
34054542            1         0.0 +j      0.0        0.0       1.0000
   TERMINAL TOTAL .......     0.0 +j      0.0        0.0       1.0000

ELEMENT = "Line.OH_10579447"
20396671            1       152.6 +j     67.7      166.9       0.9140
20396671            2       155.2 +j     69.1      169.9       0.9136
20396671            3       157.4 +j     69.2      172.0       0.9154
   TERMINAL TOTAL .......   465.2 +j    206.1      508.8       0.9143
10579447            1      -152.6 +j    -67.7      166.9       0.9140
10579447            2      -155.2 +j    -69.1      169.9       0.9136
10579447            3      -157.4 +j    -69.2      172.0       0.9154
   TERMINAL TOTAL .......  -465.2 +j   -206.0      508.8       0.9143

ELEMENT = "Line.OH_10558583"
10558520            2         0.0 +j      0.0        0.0       1.0000
   TERMINAL TOTAL .......     0.0 +j      0.0        0.0       1.0000
10558583            2         0.0 +j      0.0        0.0       1.0000
   TERMINAL TOTAL .......     0.0 +j      0.0        0.0       1.0000

ELEMENT = "Line.OH_10555985"
34091315            3        13.4 +j      3.5       13.8       0.9682
   TERMINAL TOTAL .......    13.4 +j      3.5       13.8       0.9682
10555985            3       -13.4 +j     -3.5       13.8       0.9682
   TERMINAL TOTAL .......   -13.4 +j     -3.5       13.8       0.9682

ELEMENT = "Line.OH_10549010"
10549011            1        -0.0 +j      0.0        0.0      -0.6490
10549011            2         8.0 +j      2.1        8.3       0.9676
10549011            3         0.0 +j      0.0        0.0       1.0000
   TERMINAL TOTAL .......     8.0 +j      2.1        8.3       0.9676
10549010            1         0.0 +j     -0.0        0.0      -0.6490
10549010            2        -8.0 +j     -2.1        8.3       0.9676
10549010            3         0.0 +j      0.0        0.0       1.0000
   TERMINAL TOTAL .......    -8.0 +j     -2.1        8.3       0.9676

ELEMENT = "Line.OH_10548007"
34084951            1       258.1 +j     68.0      266.9       0.9670
34084951            2       175.8 +j     45.6      181.6       0.9679
34084951            3       115.3 +j     30.3      119.2       0.9671
   TERMINAL TOTAL .......   549.2 +j    144.0      567.7       0.9673
10548007            1      -258.1 +j    -68.0      266.9       0.9670
10548007            2      -175.8 +j    -45.6      181.6       0.9679
10548007            3      -115.3 +j    -30.3      119.2       0.9671
   TERMINAL TOTAL .......  -549.1 +j   -143.9      567.7       0.9673

ELEMENT = "Line.OH_34087255"
10558471            1       482.1 +j    180.2      514.7       0.9367
10558471            2       428.6 +j    168.3      460.4       0.9308
10558471            3       373.6 +j    152.7      403.6       0.9256
   TERMINAL TOTAL .......  1284.2 +j    501.2     1378.6       0.9316
34087255            1      -482.1 +j   -180.2      514.7       0.9367
34087255            2      -428.5 +j   -168.3      460.4       0.9308
34087255            3      -373.6 +j   -152.7      403.6       0.9256
   TERMINAL TOTAL ....... -1284.2 +j   -501.2     1378.5       0.9316

ELEMENT = "Line.OH_34085341"
10549294            1       247.6 +j     65.2      256.0       0.9671
10549294            2       160.9 +j     41.7      166.2       0.9680
10549294            3        68.9 +j     17.9       71.2       0.9678
   TERMINAL TOTAL .......   477.4 +j    124.8      493.5       0.9675
34085341            1      -247.6 +j    -65.2      256.0       0.9671
34085341            2      -160.9 +j    -41.7      166.2       0.9680
34085341            3       -68.9 +j    -17.9       71.2       0.9678
   TERMINAL TOTAL .......  -477.4 +j   -124.8      493.5       0.9675

ELEMENT = "Line.OH_20437313"
34086019            1        45.9 +j     12.2       47.5       0.9662
   TERMINAL TOTAL .......    45.9 +j     12.2       47.5       0.9662
20437313            1       -45.9 +j    -12.2       47.5       0.9662
   TERMINAL TOTAL .......   -45.9 +j    -12.2       47.5       0.9662

ELEMENT = "Line.OH_10579118"
34085040            1       125.9 +j     33.0      130.1       0.9673
   TERMINAL TOTAL .......   125.9 +j     33.0      130.1       0.9673
10579118            1      -125.8 +j    -33.0      130.1       0.9673
   TERMINAL TOTAL .......  -125.8 +j    -33.0      130.1       0.9673

ELEMENT = "Line.OH_10558577"
34086404            3        61.3 +j     15.8       63.3       0.9682
   TERMINAL TOTAL .......    61.3 +j     15.8       63.3       0.9682
10558577            3       -61.3 +j    -15.8       63.3       0.9682
   TERMINAL TOTAL .......   -61.3 +j    -15.8       63.3       0.9682

ELEMENT = "Line.OH_10549426"
10579019            2        15.3 +j      4.0       15.8       0.9672
   TERMINAL TOTAL .......    15.3 +j      4.0       15.8       0.9672
10549426            2       -15.3 +j     -4.0       15.8       0.9672
   TERMINAL TOTAL .......   -15.3 +j     -4.0       15.8       0.9672

ELEMENT = "Line.OH_10548988"
10548987            2        56.3 +j     14.6       58.2       0.9678
   TERMINAL TOTAL .......    56.3 +j     14.6       58.2       0.9678
10548988            2       -56.3 +j    -14.6       58.2       0.9678
   TERMINAL TOTAL .......   -56.3 +j    -14.6       58.2       0.9678

ELEMENT = "Line.OH_10543795"
10540779            1       336.5 +j     88.7      348.0       0.9669
10540779            2       208.4 +j     54.3      215.4       0.9677
10540779            3       221.0 +j     58.0      228.5       0.9672
   TERMINAL TOTAL .......   765.9 +j    201.1      791.8       0.9672
10543795            1      -336.4 +j    -88.6      347.9       0.9670
10543795            2      -208.4 +j    -54.3      215.4       0.9677
10543795            3      -221.0 +j    -58.0      228.4       0.9672
   TERMINAL TOTAL .......  -765.8 +j   -200.9      791.7       0.9673

ELEMENT = "Line.OH_34086801"
10558563            3        11.5 +j      3.0       11.9       0.9683
   TERMINAL TOTAL .......    11.5 +j      3.0       11.9       0.9683
34086801            3       -11.5 +j     -3.0       11.9       0.9683
   TERMINAL TOTAL .......   -11.5 +j     -3.0       11.9       0.9683

ELEMENT = "Line.OH_34085286"
10549229            1       391.6 +j    107.0      406.0       0.9647
10549229            2       448.9 +j    121.6      465.1       0.9652
10549229            3       554.1 +j    149.3      573.9       0.9656
   TERMINAL TOTAL .......  1394.6 +j    377.8     1444.9       0.9652
34085286            1      -391.6 +j   -106.9      406.0       0.9647
34085286            2      -448.9 +j   -121.6      465.1       0.9652
34085286            3      -554.1 +j   -149.3      573.8       0.9656
   TERMINAL TOTAL ....... -1394.6 +j   -377.8     1444.9       0.9652

ELEMENT = "Line.OH_20396847"
34095644            1         8.0 +j      2.0        8.2       0.9710
   TERMINAL TOTAL .......     8.0 +j      2.0        8.2       0.9710
20396847            1        -8.0 +j     -2.0        8.2       0.9710
   TERMINAL TOTAL .......    -8.0 +j     -2.0        8.2       0.9710

ELEMENT = "Line.OH_10574854"
10574852            3         6.6 +j      1.7        6.8       0.9680
   TERMINAL TOTAL .......     6.6 +j      1.7        6.8       0.9680
10574854            3        -6.6 +j     -1.7        6.8       0.9680
   TERMINAL TOTAL .......    -6.6 +j     -1.7        6.8       0.9680

ELEMENT = "Line.OH_10558570"
34086415            3        -0.0 +j     -0.0        0.0       0.6099
   TERMINAL TOTAL .......    -0.0 +j     -0.0        0.0       0.6099
10558570            3         0.0 +j      0.0        0.0       0.6099
   TERMINAL TOTAL .......     0.0 +j      0.0        0.0       0.6099

ELEMENT = "Line.OH_10549307"
10549217            2        82.4 +j     21.5       85.2       0.9675
   TERMINAL TOTAL .......    82.4 +j     21.5       85.2       0.9675
10549307            2       -82.4 +j    -21.5       85.2       0.9675
   TERMINAL TOTAL .......   -82.4 +j    -21.5       85.2       0.9675

ELEMENT = "Line.OH_10548982"
34085372            1        31.2 +j      8.0       32.3       0.9685
   TERMINAL TOTAL .......    31.2 +j      8.0       32.3       0.9685
10548982            1       -31.2 +j     -8.0       32.3       0.9685
   TERMINAL TOTAL .......   -31.2 +j     -8.0       32.3       0.9685

ELEMENT = "Line.OH_10540779"
10549220            1       336.5 +j     88.7      348.0       0.9669
10549220            2       208.4 +j     54.3      215.4       0.9677
10549220            3       221.0 +j     58.0      228.5       0.9672
   TERMINAL TOTAL .......   765.9 +j    201.1      791.8       0.9672
10540779            1      -336.5 +j    -88.7      348.0       0.9669
10540779            2      -208.4 +j    -54.3      215.4       0.9677
10540779            3      -221.0 +j    -58.0      228.5       0.9672
   TERMINAL TOTAL .......  -765.9 +j   -201.1      791.8       0.9672

ELEMENT = "Line.OH_40152453"
34086011            1         1.3 +j      0.3        1.3       0.9707
   TERMINAL TOTAL .......     1.3 +j      0.3        1.3       0.9707
40152453            1        -1.3 +j     -0.3        1.3       0.9707
   TERMINAL TOTAL .......    -1.3 +j     -0.3        1.3       0.9707

ELEMENT = "Line.OH_34086794"
20344371            2        21.3 +j      5.6       22.0       0.9673
   TERMINAL TOTAL .......    21.3 +j      5.6       22.0       0.9673
34086794            2       -21.3 +j     -5.6       22.0       0.9673
   TERMINAL TOTAL .......   -21.3 +j     -5.6       22.0       0.9673

ELEMENT = "Line.OH_34085048"
10549289            3        10.1 +j      2.7       10.4       0.9665
   TERMINAL TOTAL .......    10.1 +j      2.7       10.4       0.9665
34085048            3       -10.1 +j     -2.7       10.4       0.9665
   TERMINAL TOTAL .......   -10.1 +j     -2.7       10.4       0.9665

ELEMENT = "Line.OH_20350796"
34084593            2        26.4 +j      6.8       27.3       0.9681
   TERMINAL TOTAL .......    26.4 +j      6.8       27.3       0.9681
20350796            2       -26.4 +j     -6.8       27.3       0.9681
   TERMINAL TOTAL .......   -26.4 +j     -6.8       27.3       0.9681

ELEMENT = "Line.OH_10573492"
10573493            3        35.4 +j      9.2       36.6       0.9682
   TERMINAL TOTAL .......    35.4 +j      9.2       36.6       0.9682
10573492            3       -35.4 +j     -9.2       36.6       0.9682
   TERMINAL TOTAL .......   -35.4 +j     -9.2       36.6       0.9682

ELEMENT = "Line.OH_10558564"
10558560            3        11.5 +j      3.0       11.9       0.9683
   TERMINAL TOTAL .......    11.5 +j      3.0       11.9       0.9683
10558564            3       -11.5 +j     -3.0       11.9       0.9683
   TERMINAL TOTAL .......   -11.5 +j     -3.0       11.9       0.9683

ELEMENT = "Line.OH_10549291"
10549274            2        13.8 +j      3.6       14.2       0.9675
   TERMINAL TOTAL .......    13.8 +j      3.6       14.2       0.9675
10549291            2       -13.8 +j     -3.6       14.2       0.9675
   TERMINAL TOTAL .......   -13.8 +j     -3.6       14.2       0.9675

ELEMENT = "Line.OH_10548968"
10548967            1        11.7 +j      3.0       12.1       0.9691
   TERMINAL TOTAL .......    11.7 +j      3.0       12.1       0.9691
10548968            1       -11.7 +j     -3.0       12.1       0.9691
   TERMINAL TOTAL .......   -11.7 +j     -3.0       12.1       0.9691

ELEMENT = "Line.OH_10532911"
10561915            3        16.2 +j      4.2       16.8       0.9678
   TERMINAL TOTAL .......    16.2 +j      4.2       16.8       0.9678
10532911            3       -16.2 +j     -4.2       16.8       0.9678
   TERMINAL TOTAL .......   -16.2 +j     -4.2       16.8       0.9678

ELEMENT = "Line.OH_34097398"
34086302            3       123.2 +j     31.8      127.2       0.9682
   TERMINAL TOTAL .......   123.2 +j     31.8      127.2       0.9682
34097398            3      -123.2 +j    -31.8      127.2       0.9682
   TERMINAL TOTAL .......  -123.2 +j    -31.8      127.2       0.9682

ELEMENT = "Line.OH_34086403"
10558517            1        21.0 +j      5.5       21.7       0.9673
10558517            2         0.5 +j      0.1        0.5       0.9743
10558517            3       264.8 +j     69.6      273.8       0.9671
   TERMINAL TOTAL .......   286.3 +j     75.2      296.0       0.9672
34086403            1       -21.0 +j     -5.5       21.7       0.9673
34086403            2        -0.5 +j     -0.1        0.5       0.9743
34086403            3      -264.8 +j    -69.6      273.8       0.9672
   TERMINAL TOTAL .......  -286.3 +j    -75.2      296.0       0.9672

ELEMENT = "Line.OH_34085042"
34085321            1        96.1 +j     25.4       99.4       0.9669
   TERMINAL TOTAL .......    96.1 +j     25.4       99.4       0.9669
34085042            1       -96.1 +j    -25.3       99.4       0.9669
   TERMINAL TOTAL .......   -96.1 +j    -25.3       99.4       0.9669

ELEMENT = "Line.UG_20344333"
34055522            1        51.5 +j     13.1       53.1       0.9693
   TERMINAL TOTAL .......    51.5 +j     13.1       53.1       0.9693
20344333            1       -51.5 +j    -13.1       53.1       0.9693
   TERMINAL TOTAL .......   -51.5 +j    -13.1       53.1       0.9693

ELEMENT = "Line.OH_10560618"
34086799            3        12.3 +j      3.2       12.7       0.9683
   TERMINAL TOTAL .......    12.3 +j      3.2       12.7       0.9683
10560618            3       -12.3 +j     -3.2       12.7       0.9684
   TERMINAL TOTAL .......   -12.3 +j     -3.2       12.7       0.9684

ELEMENT = "Line.OH_10558558"
10558559            2        14.9 +j      3.9       15.4       0.9679
   TERMINAL TOTAL .......    14.9 +j      3.9       15.4       0.9679
10558558            2       -14.9 +j     -3.9       15.4       0.9679
   TERMINAL TOTAL .......   -14.9 +j     -3.9       15.4       0.9679

ELEMENT = "Line.OH_10549285"
10549291            2        13.8 +j      3.6       14.2       0.9675
   TERMINAL TOTAL .......    13.8 +j      3.6       14.2       0.9675
10549285            2       -13.8 +j     -3.6       14.2       0.9675
   TERMINAL TOTAL .......   -13.8 +j     -3.6       14.2       0.9675

ELEMENT = "Line.OH_10548960"
34085480            2         6.2 +j      1.6        6.4       0.9679
   TERMINAL TOTAL .......     6.2 +j      1.6        6.4       0.9679
10548960            2        -6.2 +j     -1.6        6.4       0.9679
   TERMINAL TOTAL .......    -6.2 +j     -1.6        6.4       0.9679

ELEMENT = "Line.OH_10526890"
10558524            1         0.7 +j      0.3        0.8       0.9363
10558524            2         0.7 +j      0.3        0.8       0.9363
10558524            3         0.7 +j      0.3        0.8       0.9363
   TERMINAL TOTAL .......     2.2 +j      0.8        2.3       0.9363
10526890            1        -0.7 +j     -0.3        0.8       0.9363
10526890            2        -0.7 +j     -0.3        0.8       0.9363
10526890            3        -0.7 +j     -0.3        0.8       0.9363
   TERMINAL TOTAL .......    -2.2 +j     -0.8        2.3       0.9363

ELEMENT = "Line.OH_34097392"
34086805            3        12.0 +j      3.1       12.4       0.9688
   TERMINAL TOTAL .......    12.0 +j      3.1       12.4       0.9688
34097392            3       -12.0 +j     -3.1       12.4       0.9688
   TERMINAL TOTAL .......   -12.0 +j     -3.1       12.4       0.9688

ELEMENT = "Line.OH_34086382"
10524061            3        23.2 +j      5.9       24.0       0.9691
   TERMINAL TOTAL .......    23.2 +j      5.9       24.0       0.9691
34086382            3       -23.2 +j     -5.9       24.0       0.9691
   TERMINAL TOTAL .......   -23.2 +j     -5.9       24.0       0.9691

ELEMENT = "Line.OH_34085036"
34085037            1       184.5 +j     48.4      190.7       0.9673
34085037            2        30.1 +j      7.9       31.1       0.9676
34085037            3        -0.0 +j     -0.0        0.0       0.8999
   TERMINAL TOTAL .......   214.5 +j     56.2      221.8       0.9673
34085036            1      -184.4 +j    -48.3      190.7       0.9673
34085036            2       -30.1 +j     -7.9       31.1       0.9676
34085036            3         0.0 +j      0.0        0.0       0.8999
   TERMINAL TOTAL .......  -214.5 +j    -56.2      221.8       0.9674

ELEMENT = "Line.OH_20251419"
34086405            3        11.4 +j      3.0       11.8       0.9672
   TERMINAL TOTAL .......    11.4 +j      3.0       11.8       0.9672
20251419            3       -11.4 +j     -3.0       11.8       0.9672
   TERMINAL TOTAL .......   -11.4 +j     -3.0       11.8       0.9672

ELEMENT = "Line.OH_10560337"
34095649            2         5.0 +j      1.3        5.2       0.9692
   TERMINAL TOTAL .......     5.0 +j      1.3        5.2       0.9692
10560337            2        -5.0 +j     -1.3        5.2       0.9692
   TERMINAL TOTAL .......    -5.0 +j     -1.3        5.2       0.9692

ELEMENT = "Line.OH_10558551"
10558549            1        27.3 +j      7.1       28.2       0.9678
   TERMINAL TOTAL .......    27.3 +j      7.1       28.2       0.9678
10558551            1       -27.3 +j     -7.1       28.2       0.9679
   TERMINAL TOTAL .......   -27.3 +j     -7.1       28.2       0.9679

ELEMENT = "Line.OH_10549274"
34085035            1       219.9 +j     57.8      227.3       0.9671
34085035            2        94.3 +j     24.6       97.4       0.9676
34085035            3         0.0 +j     -0.0        0.0      -0.4358
   TERMINAL TOTAL .......   314.2 +j     82.4      324.8       0.9673
10549274            1      -219.8 +j    -57.8      227.3       0.9671
10549274            2       -94.3 +j    -24.6       97.4       0.9676
10549274            3        -0.0 +j      0.0        0.0      -0.4358
   TERMINAL TOTAL .......  -314.1 +j    -82.4      324.8       0.9673

ELEMENT = "Line.OH_10548952"
10548909            1        15.8 +j      4.1       16.3       0.9681
   TERMINAL TOTAL .......    15.8 +j      4.1       16.3       0.9681
10548952            1       -15.8 +j     -4.1       16.3       0.9681
   TERMINAL TOTAL .......   -15.8 +j     -4.1       16.3       0.9681

ELEMENT = "Line.OH_10524061"
34086401            3        24.0 +j      6.1       24.8       0.9692
   TERMINAL TOTAL .......    24.0 +j      6.1       24.8       0.9692
10524061            3       -24.0 +j     -6.1       24.8       0.9692
   TERMINAL TOTAL .......   -24.0 +j     -6.1       24.8       0.9692

ELEMENT = "Line.OH_34096115"
10558560            1       338.6 +j     89.3      350.1       0.9669
10558560            2        45.5 +j     12.0       47.1       0.9668
10558560            3       293.7 +j     77.5      303.8       0.9669
   TERMINAL TOTAL .......   677.8 +j    178.9      701.0       0.9669
...